19
-5.8146816831630679e+02 frame 0   xyz file generated by TeraChem
    Fe    -0.0003874712   -0.0004188110    0.0001604089
     O     0.0691101246    2.0214646245    0.1248654872
     H     0.9610952872    2.3876325217   -0.0246179840
     H    -0.5551199323    2.6219459268   -0.3211500227
     O     2.0209590435    0.1257234170    0.0650573267
     H     2.6179987637   -0.3364315490   -0.5506693994
     H     2.3861230386   -0.0106123088    0.9595825270
     O    -0.1270570680   -2.0216835823   -0.0674192545
     H     0.0263719112   -2.3898342025   -0.9578888160
     H     0.3151937316   -2.6211153596    0.5604457934
     O    -2.0217802412   -0.0674584506   -0.1278880883
     H    -2.6236122287    0.5525630662    0.3220633426
     H    -2.3876956661   -0.9610390452    0.0123555955
     O     0.1261862414    0.0693684444    2.0210611923
     H    -0.0109975724    0.9645769229    2.3842636855
     H    -0.3283626858   -0.5465996110    2.6236469501
     O    -0.0619056925   -0.1290981767   -2.0208470261
     H     0.5509170110    0.3386455713   -2.6165562626
     H    -0.9570366559    0.0023705763   -2.3864653788
19
-5.8147694200832609e+02 frame 1   xyz file generated by TeraChem
    Fe     0.0031208199   -0.0050889999   -0.0006227303
     O     0.0699149918    2.0992273175    0.1420780133
     H     0.9593544223    2.4787554873    0.0123777905
     H    -0.5481388213    2.7158057096   -0.2916479053
     O     2.0995895409    0.1227755461    0.0787214667
     H     2.7186995864   -0.3196224308   -0.5304730491
     H     2.4722059895    0.0015623517    0.9725260085
     O    -0.1252153984   -2.0946988849   -0.0798983147
     H     0.0097319138   -2.4724273633   -0.9696724676
     H     0.2999864204   -2.7133738571    0.5418160893
     O    -2.1068418154   -0.0711382323   -0.1430092468
     H    -2.7265935422    0.5425397297    0.2923376394
     H    -2.4856507453   -0.9617732850   -0.0196150870
     O     0.1477022929    0.0844413192    2.0287484932
     H     0.0173592421    0.9828825810    2.3875032206
     H    -0.2995813547   -0.5261845375    2.6426861449
     O    -0.0722343808   -0.1498074166   -2.0320093503
     H     0.5366881158    0.3112625860   -2.6373503820
     H    -0.9700970088   -0.0251376052   -2.3944962994
19
-5.8147831605376325e+02 frame 2   xyz file generated by TeraChem
    Fe     0.0066507330   -0.0079282335    0.0003205712
     O     0.0834146325    2.1356955420    0.1299249080
     H     0.9744666841    2.5163327557    0.0174758635
     H    -0.5276486883    2.7609696366   -0.3005960558
     O     2.1389499226    0.1353144445    0.0732522476
     H     2.7721777566   -0.2826492079   -0.5379448889
     H     2.5203299930    0.0292605177    0.9641333171
     O    -0.1329213756   -2.1295237999   -0.0664398945
     H    -0.0188289883   -2.5203995130   -0.9523738952
     H     0.2724359105   -2.7578542766    0.5582351867
     O    -2.1456096986   -0.0838689146   -0.1415757167
     H    -2.7781981667    0.5239895007    0.2824053609
     H    -2.5258204584   -0.9753378382   -0.0326721967
     O     0.1439501261    0.0716446604    2.0322641467
     H     0.0155946993    0.9690029300    2.3944018724
     H    -0.3043486956   -0.5426296077    2.6423364031
     O    -0.0684148793   -0.1424514230   -2.0326952200
     H     0.5409335191    0.3207853600   -2.6363097429
     H    -0.9671126225   -0.0203520822   -2.3941420335
19
-5.8147852467558778e+02 frame 3   xyz file generated by TeraChem
    Fe     0.0089888303   -0.0100701763   -0.0002818784
     O     0.0864607307    2.1442887009    0.1312969676
     H     0.9777188076    2.5271434698    0.0332620635
     H    -0.5237481251    2.7759030089   -0.2903175023
     O     2.1527401711    0.1298223370    0.0710195394
     H     2.7923407198   -0.2759012335   -0.5414227001
     H     2.5381348455    0.0322724936    0.9609226722
     O    -0.1331863613   -2.1410005769   -0.0638808031
     H    -0.0359499132   -2.5385109072   -0.9486327474
     H     0.2631666501   -2.7750750993    0.5604177601
     O    -2.1574359174   -0.0823557100   -0.1431459210
     H    -2.7960111041    0.5272983884    0.2684725603
     H    -2.5406892552   -0.9731418562   -0.0432386304
     O     0.1564884060    0.0823012470    2.0278200435
     H     0.0354845833    0.9814077277    2.3879634554
     H    -0.2906405150   -0.5281972215    2.6422595343
     O    -0.0799433900   -0.1512512275   -2.0288490250
     H     0.5267336654    0.3089601685   -2.6372053242
     H    -0.9806524333   -0.0338930905   -2.3864597468
19
-5.8147864423454757e+02 frame 4   xyz file generated by TeraChem
    Fe     0.0127475358   -0.0121512228   -0.0001199875
     O     0.0881672162    2.1479059921    0.1226368875
     H     0.9793459549    2.5337565822    0.0396748785
     H    -0.5209285301    2.7841192239   -0.2930595473
     O     2.1620276739    0.1225872809    0.0605047590
     H     2.8047722528   -0.2684145254   -0.5579711675
     H     2.5553216310    0.0317913437    0.9474085070
     O    -0.1295924067   -2.1462506774   -0.0515186610
     H    -0.0498965210   -2.5541544426   -0.9330546496
     H     0.2567869669   -2.7828643796    0.5762278208
     O    -2.1630540508   -0.0799104497   -0.1381625969
     H    -2.8066738007    0.5321540169    0.2613495849
     H    -2.5499081467   -0.9696877702   -0.0463924365
     O     0.1571269519    0.0811704007    2.0242074703
     H     0.0406884289    0.9803295877    2.3855742352
     H    -0.2933458214   -0.5285103785    2.6370472360
     O    -0.0824055674   -0.1490886092   -2.0231843816
     H     0.5230101409    0.3115429055   -2.6324452809
     H    -0.9841897621   -0.0343244997   -2.3787222782
19
-5.8147873782516865e+02 frame 5   xyz file generated by TeraChem
    Fe     0.0170063717   -0.0154496547   -0.0005621310
     O     0.0949382583    2.1440708420    0.1192689985
     H     0.9864274718    2.5323604500    0.0558421067
     H    -0.5109932609    2.7880623160   -0.2884710319
     O     2.1655222463    0.1191371792    0.0541542132
     H     2.8124666561   -0.2522497261   -0.5717253759
     H     2.5673694276    0.0345189399    0.9376016405
     O    -0.1289760571   -2.1462033234   -0.0418989665
     H    -0.0696566701   -2.5654028931   -0.9195276949
     H     0.2456067409   -2.7855939639    0.5899375688
     O    -2.1633272691   -0.0819693849   -0.1383404153
     H    -2.8139213266    0.5326197964    0.2452207807
     H    -2.5543266233   -0.9705484137   -0.0555675886
     O     0.1605496444    0.0832050995    2.0191843021
     H     0.0496233776    0.9829637537    2.3805088763
     H    -0.2940926898   -0.5236938108    2.6316283746
     O    -0.0877798680   -0.1495707817   -2.0177954577
     H     0.5147459585    0.3113696200   -2.6295820620
     H    -0.9911825444   -0.0376257466   -2.3698755312
19
-5.8147879710236737e+02 frame 6   xyz file generated by TeraChem
    Fe     0.0210129696   -0.0182179592   -0.0009326733
     O     0.0970059955    2.1369265506    0.1166129744
     H     0.9880006620    2.5284062681    0.0690696922
     H    -0.5069798968    2.7860114916   -0.2859182275
     O     2.1650073887    0.1129826188    0.0493239600
     H     2.8126122838   -0.2418167758   -0.5854092236
     H     2.5753378254    0.0282171981    0.9288050777
     O    -0.1246256623   -2.1420463384   -0.0332327904
     H    -0.0797893811   -2.5714755554   -0.9067241356
     H     0.2425022255   -2.7808973735    0.6034809930
     O    -2.1592015931   -0.0810304299   -0.1388863302
     H    -2.8137156262    0.5377435274    0.2310301585
     H    -2.5557260451   -0.9674740000   -0.0608791068
     O     0.1596525225    0.0811567199    2.0175970958
     H     0.0511948317    0.9811363951    2.3788843389
     H    -0.3009399237   -0.5235497182    2.6277533378
     O    -0.0889292682   -0.1467696473   -2.0162592265
     H     0.5111291260    0.3158387935   -2.6291876729
     H    -0.9935489356   -0.0351418132   -2.3651275414
19
-5.8147882895317616e+02 frame 7   xyz file generated by TeraChem
    Fe     0.0234460043   -0.0202743990   -0.0014945530
     O     0.0992771580    2.1306969246    0.1180797436
     H     0.9901155033    2.5236583459    0.0803325001
     H    -0.5028954282    2.7831027686   -0.2818792798
     O     2.1634624503    0.1107167721    0.0492837354
     H     2.8104739819   -0.2316918554   -0.5928153877
     H     2.5794961288    0.0213117581    0.9256291980
     O    -0.1230846301   -2.1384052589   -0.0299564320
     H    -0.0857223050   -2.5742122068   -0.9006554944
     H     0.2409197648   -2.7755850765    0.6102174761
     O    -2.1553335385   -0.0811789900   -0.1414151695
     H    -2.8111953216    0.5417254000    0.2191473750
     H    -2.5565596630   -0.9655401115   -0.0637259522
     O     0.1589403193    0.0787862833    2.0187671234
     H     0.0507748687    0.9792035303    2.3788718624
     H    -0.3068179611   -0.5237478713    2.6271361378
     O    -0.0891962639   -0.1451922111   -2.0186932330
     H     0.5087410174    0.3188882074   -2.6325476979
     H    -0.9948427640   -0.0322622168   -2.3642811671
19
-5.8147885754087247e+02 frame 8   xyz file generated by TeraChem
    Fe     0.0255684987   -0.0222197306   -0.0022628536
     O     0.1000124927    2.1255923020    0.1205952598
     H     0.9906893407    2.5196854379    0.0906775033
     H    -0.5005859484    2.7801213079   -0.2783793254
     O     2.1632197720    0.1079670972    0.0511620810
     H     2.8083763224   -0.2216255782   -0.5994650866
     H     2.5846908584    0.0088908045    0.9238921733
     O    -0.1214018438   -2.1358758577   -0.0277405336
     H    -0.0887980239   -2.5775086508   -0.8957310442
     H     0.2423654363   -2.7698332768    0.6157598281
     O    -2.1525693724   -0.0796121188   -0.1444300784
     H    -2.8076194340    0.5495633811    0.2067074424
     H    -2.5598156136   -0.9609377141   -0.0633747502
     O     0.1583449124    0.0751318415    2.0213490294
     H     0.0494155951    0.9762745252    2.3792607625
     H    -0.3136034501   -0.5247448714    2.6275611288
     O    -0.0889625169   -0.1439954929   -2.0231413695
     H     0.5065497320    0.3216752128   -2.6380981551
     H    -0.9958776476   -0.0285491150   -2.3643413869
19
-5.8147889076423053e+02 frame 9   xyz file generated by TeraChem
    Fe     0.0277363495   -0.0245197626   -0.0034107507
     O     0.1010530086    2.1214669586    0.1239731850
     H     0.9919400085    2.5156925777    0.1016674253
     H    -0.4971448722    2.7779304150   -0.2754701560
     O     2.1651454865    0.1053331361    0.0546644258
     H     2.8076617078   -0.2070492545   -0.6069510984
     H     2.5925486070   -0.0099184402    0.9225143110
     O    -0.1210011099   -2.1348764654   -0.0255104795
     H    -0.0923527659   -2.5827798645   -0.8904540490
     H     0.2450012464   -2.7640727140    0.6213566851
     O    -2.1516921602   -0.0766742504   -0.1478314055
     H    -2.8038623555    0.5621139596    0.1911255946
     H    -2.5671230862   -0.9534139880   -0.0587210261
     O     0.1585069424    0.0702517740    2.0242344940
     H     0.0486929444    0.9726673121    2.3785914821
     H    -0.3218475246   -0.5256545541    2.6277661870
     O    -0.0889292505   -0.1441426056   -2.0285522766
     H     0.5033386232    0.3230200514   -2.6454611915
     H    -0.9976730949   -0.0253748534   -2.3635302377
19
-5.8147892901883483e+02 frame 10   xyz file generated by TeraChem
    Fe     0.0296790537   -0.0268927737   -0.0047696826
     O     0.1024822474    2.1190202080    0.1259228833
     H     0.9942333760    2.5116800099    0.1100045542
     H    -0.4922095314    2.7770528390   -0.2761241860
     O     2.1693881893    0.1028328462    0.0587880627
     H     2.8092899039   -0.1881939841   -0.6149352286
     H     2.6022904217   -0.0342848593    0.9206890686
     O    -0.1223196936   -2.1355304969   -0.0215276553
     H    -0.0968301636   -2.5895532408   -0.8834009996
     H     0.2488018114   -2.7588498080    0.6280671591
     O    -2.1535682850   -0.0720386392   -0.1504424239
     H    -2.8008700096    0.5794595167    0.1732059539
     H    -2.5787332943   -0.9426244877   -0.0479364750
     O     0.1599419765    0.0649933648    2.0257406595
     H     0.0506301108    0.9691204901    2.3759548813
     H    -0.3304890044   -0.5257019594    2.6263398121
     O    -0.0896998559   -0.1465863886   -2.0325548671
     H     0.4986779107    0.3213560613   -2.6525777970
     H    -1.0006969734   -0.0252596840   -2.3604417552
19
-5.8147896746278366e+02 frame 11   xyz file generated by TeraChem
    Fe     0.0309852269   -0.0289601516   -0.0060541419
     O     0.1053088857    2.1179545133    0.1253002490
     H     0.9989224666    2.5065670643    0.1139566552
     H    -0.4842682011    2.7775702099   -0.2815441804
     O     2.1747576185    0.1015145004    0.0619756088
     H     2.8131601667   -0.1650796599   -0.6231255883
     H     2.6118017620   -0.0607338209    0.9173404008
     O    -0.1260900380   -2.1368962220   -0.0149612467
     H    -0.1032025756   -2.5958319960   -0.8743261228
     H     0.2526304303   -2.7543577502    0.6358203538
     O    -2.1580245776   -0.0667095457   -0.1511188189
     H    -2.7994619526    0.5990292611    0.1544956727
     H    -2.5930267616   -0.9300551947   -0.0305167363
     O     0.1620440322    0.0604811199    2.0246455096
     H     0.0563135060    0.9664122888    2.3715427389
     H    -0.3390900784   -0.5241846416    2.6224055476
     O    -0.0912716492   -0.1516948616   -2.0332320843
     H     0.4930583072    0.3157542673   -2.6574795114
     H    -1.0045489872   -0.0307807842   -2.3551216103
19
-5.8147900357523270e+02 frame 12   xyz file generated by TeraChem
    Fe     0.0311136856   -0.0301151165   -0.0068920447
     O     0.1088832448    2.1177040032    0.1220608882
     H     1.0052116435    2.5000985624    0.1128305821
     H    -0.4744164080    2.7789014219   -0.2911166188
     O     2.1790662718    0.1018550870    0.0632995396
     H     2.8179413530   -0.1411007131   -0.6300781234
     H     2.6177805230   -0.0845340597    0.9128164522
     O    -0.1311439033   -2.1376029753   -0.0064209982
     H    -0.1099498224   -2.5988916050   -0.8646094572
     H     0.2567752820   -2.7505240282    0.6432690595
     O    -2.1636362468   -0.0619025356   -0.1496832541
     H    -2.7997874995    0.6169497612    0.1373187116
     H    -2.6065916018   -0.9180679601   -0.0089319960
     O     0.1640575686    0.0577452119    2.0209896236
     H     0.0658837793    0.9649476329    2.3670924748
     H    -0.3462954787   -0.5212293046    2.6165958743
     O    -0.0935397553   -0.1584638976   -2.0300979648
     H     0.4872131526    0.3071500769   -2.6590925914
     H    -1.0085684497   -0.0429212402   -2.3493468769
19
-5.8147903190084253e+02 frame 13   xyz file generated by TeraChem
    Fe     0.0298243280   -0.0299745123   -0.0070300523
     O     0.1123458301    2.1173886941    0.1181265903
     H     1.0116419789    2.4927891195    0.1091207529
     H    -0.4645949069    2.7801741648   -0.3013752391
     O     2.1805032262    0.1039604765    0.0633185197
     H     2.8220253128   -0.1209340207   -0.6337211059
     H     2.6181053900   -0.1003583961    0.9092609018
     O    -0.1357183181   -2.1365809342    0.0014053627
     H    -0.1151440394   -2.5970872817   -0.8572724149
     H     0.2607807510   -2.7473387826    0.6480326697
     O    -2.1682914181   -0.0592563739   -0.1476681753
     H    -2.8015645360    0.6286486771    0.1235786822
     H    -2.6156630217   -0.9100168312    0.0104869204
     O     0.1645151340    0.0564633853    2.0167947866
     H     0.0766931984    0.9637673195    2.3655699889
     H    -0.3516474242   -0.5186680544    2.6111723238
     O    -0.0955010071   -0.1639011219   -2.0252539260
     H     0.4828770858    0.2993918213   -2.6581616432
     H    -1.0111907184   -0.0584690611   -2.3463811649
19
-5.8147905176579661e+02 frame 14   xyz file generated by TeraChem
    Fe     0.0276247067   -0.0287981955   -0.0065811588
     O     0.1148022160    2.1165787229    0.1155734891
     H     1.0165118786    2.4861710513    0.1063766242
     H    -0.4570419605    2.7808463739   -0.3086089389
     O     2.1792457946    0.1064592564    0.0630990105
     H     2.8244158989   -0.1080796139   -0.6338850536
     H     2.6142443681   -0.1071716112    0.9081033363
     O    -0.1382376557   -2.1341705870    0.0061130683
     H    -0.1178827772   -2.5920644063   -0.8540140000
     H     0.2643544408   -2.7448497393    0.6491238720
     O    -2.1706644501   -0.0590894966   -0.1465624789
     H    -2.8038329259    0.6330864832    0.1138862923
     H    -2.6191530242   -0.9070785018    0.0228087065
     O     0.1631566801    0.0555268486    2.0147084243
     H     0.0856139442    0.9618150097    2.3684571051
     H    -0.3552939752   -0.5180679821    2.6085544211
     O    -0.0966003175   -0.1655075632   -2.0220779714
     H     0.4806297255    0.2962127866   -2.6571426792
     H    -1.0118959665   -0.0718206937   -2.3479282001
19
-5.8147906842885027e+02 frame 15   xyz file generated by TeraChem
    Fe     0.0249030945   -0.0270364819   -0.0058536795
     O     0.1168720470    2.1153017523    0.1146021498
     H     1.0205606953    2.4800673264    0.1061096326
     H    -0.4505820251    2.7811919150   -0.3130192741
     O     2.1767980519    0.1080771760    0.0633689061
     H     2.8256677780   -0.1000870554   -0.6321559440
     H     2.6090932538   -0.1097693575    0.9087123492
     O    -0.1392535717   -2.1311147153    0.0082904737
     H    -0.1197448802   -2.5861330730   -0.8534132056
     H     0.2679218946   -2.7424885904    0.6477957289
     O    -2.1715434081   -0.0603135845   -0.1465303270
     H    -2.8061401336    0.6338978729    0.1049956875
     H    -2.6198016720   -0.9068559050    0.0305460686
     O     0.1605269493    0.0544021162    2.0152564781
     H     0.0929749805    0.9591307131    2.3747465368
     H    -0.3589503182   -0.5185322903    2.6087605557
     O    -0.0971351733   -0.1640738855   -2.0215536906
     H     0.4793332319    0.2969421417   -2.6577149329
     H    -1.0115040778   -0.0826081255   -2.3529396583
19
-5.8147908133078602e+02 frame 16   xyz file generated by TeraChem
    Fe     0.0219796385   -0.0251508268   -0.0051609902
     O     0.1198069254    2.1135556655    0.1142365649
     H     1.0255247388    2.4733177075    0.1085064000
     H    -0.4425831399    2.7816199057   -0.3167499209
     O     2.1755122822    0.1085959731    0.0641920240
     H     2.8273870374   -0.0901264389   -0.6312820373
     H     2.6068282753   -0.1145867232    0.9086382373
     O    -0.1400340613   -2.1279767935    0.0102167915
     H    -0.1236507332   -2.5816846860   -0.8522415089
     H     0.2725583564   -2.7390421430    0.6465417678
     O    -2.1728382182   -0.0620449770   -0.1466167638
     H    -2.8089061766    0.6353185919    0.0922556087
     H    -2.6219502329   -0.9061638656    0.0396319397
     O     0.1578287230    0.0511571337    2.0179130845
     H     0.1011478737    0.9542073617    2.3831557955
     H    -0.3642627135   -0.5203090920    2.6104515762
     O    -0.0983596992   -0.1602272970   -2.0235465199
     H     0.4761052547    0.3012883673   -2.6610152727
     H    -1.0120973010   -0.0917499930   -2.3591226708
19
-5.8147909066582463e+02 frame 17   xyz file generated by TeraChem
    Fe     0.0199393796   -0.0236286403   -0.0047188144
     O     0.1214844765    2.1128961772    0.1147657149
     H     1.0281212359    2.4703550743    0.1110728422
     H    -0.4384696055    2.7820130296   -0.3177736382
     O     2.1758937000    0.1077794095    0.0647762852
     H     2.8282231538   -0.0870707305   -0.6313363904
     H     2.6079007176   -0.1167034245    0.9084877243
     O    -0.1397309173   -2.1264871501    0.0097023956
     H    -0.1261500304   -2.5801358941   -0.8528170677
     H     0.2767966411   -2.7366584960    0.6442821274
     O    -2.1740345587   -0.0639951015   -0.1459708414
     H    -2.8110446882    0.6352118278    0.0849102366
     H    -2.6234216920   -0.9066789688    0.0459617124
     O     0.1561401056    0.0493181335    2.0207585304
     H     0.1052861932    0.9515762912    2.3886169501
     H    -0.3679450149   -0.5208410835    2.6127399817
     O    -0.0993119766   -0.1568812674   -2.0260871810
     H     0.4732356442    0.3058939577   -2.6642530588
     H    -1.0129160638   -0.0959653310   -2.3631130682
19
-5.8147909944282401e+02 frame 18   xyz file generated by TeraChem
    Fe     0.0177192290   -0.0217406082   -0.0042822369
     O     0.1237342272    2.1128558778    0.1143208030
     H     1.0311714232    2.4682900092    0.1124639872
     H    -0.4340787216    2.7826154323   -0.3199747507
     O     2.1777885397    0.1067186500    0.0652483576
     H     2.8289727475   -0.0850667014   -0.6327005138
     H     2.6122149173   -0.1181919880    0.9075204401
     O    -0.1393308098   -2.1253209841    0.0091691045
     H    -0.1296425138   -2.5801234055   -0.8527424041
     H     0.2827235843   -2.7332496535    0.6421818678
     O    -2.1762245226   -0.0674130275   -0.1438066121
     H    -2.8141421795    0.6340958849    0.0773206795
     H    -2.6256997330   -0.9082356143    0.0557310237
     O     0.1551420377    0.0472800187    2.0234738564
     H     0.1095707100    0.9490749587    2.3930284331
     H    -0.3718582852   -0.5209095812    2.6147336715
     O    -0.1011159999   -0.1531188593   -2.0285361865
     H     0.4681642414    0.3122496016   -2.6676468115
     H    -1.0151123431   -0.0998123020   -2.3654978741
19
-5.8147910642603574e+02 frame 19   xyz file generated by TeraChem
    Fe     0.0162655946   -0.0201749927   -0.0039855324
     O     0.1255959308    2.1132358253    0.1130519655
     H     1.0333942992    2.4677527795    0.1116641714
     H    -0.4314265963    2.7829431533   -0.3223196904
     O     2.1799480312    0.1060041281    0.0649994203
     H     2.8288888568   -0.0861536349   -0.6348654356
     H     2.6172794185   -0.1175065889    0.9060639856
     O    -0.1389549416   -2.1244633325    0.0088439056
     H    -0.1321781273   -2.5807282211   -0.8522787475
     H     0.2879984495   -2.7299267320    0.6408900989
     O    -2.1782893925   -0.0711121441   -0.1407848496
     H    -2.8171082560    0.6317140117    0.0733598937
     H    -2.6270641539   -0.9107522086    0.0649972040
     O     0.1548037628    0.0469542787    2.0242349195
     H     0.1116634178    0.9488280484    2.3939164678
     H    -0.3746178876   -0.5195140181    2.6150013242
     O    -0.1025919664   -0.1512660939   -2.0290239890
     H     0.4635953156    0.3169874262   -2.6687607958
     H    -1.0172050873   -0.1028240104   -2.3649991670
19
-5.8147911205688467e+02 frame 20   xyz file generated by TeraChem
    Fe     0.0153595092   -0.0187178265   -0.0037583274
     O     0.1272285623    2.1138991160    0.1104397800
     H     1.0351155330    2.4682105449    0.1083775874
     H    -0.4299367910    2.7830716359   -0.3255623342
     O     2.1819046938    0.1056915316    0.0643686959
     H     2.8279454212   -0.0900387177   -0.6371359824
     H     2.6223107522   -0.1145521334    0.9046330774
     O    -0.1384333227   -2.1234546642    0.0094306871
     H    -0.1337548672   -2.5814380968   -0.8507643339
     H     0.2932408084   -2.7261631447    0.6408875771
     O    -2.1801112604   -0.0754950758   -0.1374018133
     H    -2.8204116831    0.6276510652    0.0711019745
     H    -2.6271945742   -0.9146107542    0.0739145518
     O     0.1547940767    0.0482552748    2.0233041693
     H     0.1122406681    0.9505234529    2.3922048894
     H    -0.3766907432   -0.5167577077    2.6136627362
     O    -0.1037571910   -0.1509166899   -2.0277033575
     H     0.4592452983    0.3209334264   -2.6676573540
     H    -1.0190978510   -0.1060937671   -2.3623369142
19
-5.8147911541731526e+02 frame 21   xyz file generated by TeraChem
    Fe     0.0150120798   -0.0177013479   -0.0036441370
     O     0.1287860133    2.1142762755    0.1077189016
     H     1.0368221850    2.4682240229    0.1047396524
     H    -0.4284893156    2.7832580588   -0.3284425206
     O     2.1827774433    0.1059655636    0.0634486479
     H     2.8267996106   -0.0931733219   -0.6389419299
     H     2.6252021974   -0.1117339397    0.9032974775
     O    -0.1382709767   -2.1222449630    0.0111947129
     H    -0.1347996143   -2.5814971478   -0.8483278523
     H     0.2971798540   -2.7228169249    0.6421147929
     O    -2.1812554299   -0.0791762587   -0.1349963330
     H    -2.8234529227    0.6236407997    0.0687043170
     H    -2.6264849900   -0.9181432352    0.0806687463
     O     0.1546178258    0.0500238845    2.0217391106
     H     0.1123720880    0.9525604821    2.3901330302
     H    -0.3784756300   -0.5140061590    2.6116395158
     O    -0.1043177018   -0.1514280844   -2.0257645655
     H     0.4560974888    0.3238215038   -2.6655497270
     H    -1.0201233424   -0.1098518602   -2.3597263789
19
-5.8147911638358335e+02 frame 22   xyz file generated by TeraChem
    Fe     0.0152944897   -0.0172697426   -0.0036736087
     O     0.1292480490    2.1147159066    0.1058792438
     H     1.0371969351    2.4688872865    0.1017082269
     H    -0.4287770579    2.7836360463   -0.3294279974
     O     2.1825085628    0.1064604825    0.0624162965
     H     2.8254516657   -0.0969246611   -0.6397722743
     H     2.6254898782   -0.1086021644    0.9026714354
     O    -0.1378155268   -2.1215879034    0.0129994894
     H    -0.1342724478   -2.5814513400   -0.8462198694
     H     0.2994878735   -2.7210370059    0.6437425048
     O    -2.1812941212   -0.0816415603   -0.1341245325
     H    -2.8254617927    0.6199194655    0.0677252593
     H    -2.6245197348   -0.9213216867    0.0828764422
     O     0.1543683428    0.0522233115    2.0204996690
     H     0.1112907150    0.9549676802    2.3883497061
     H    -0.3791028275   -0.5116947957    2.6101961857
     O    -0.1040264887   -0.1523901176   -2.0243117957
     H     0.4549307696    0.3256260503   -2.6633748474
     H    -1.0200006652   -0.1125177035   -2.3581540767
19
-5.8147911893632386e+02 frame 23   xyz file generated by TeraChem
    Fe     0.0155407659   -0.0168033719   -0.0037840300
     O     0.1302171905    2.1150006244    0.1043694915
     H     1.0383561398    2.4686789608    0.0994710652
     H    -0.4279547126    2.7845034685   -0.3298587438
     O     2.1820784040    0.1071673238    0.0614945000
     H     2.8242931384   -0.0986418261   -0.6406831987
     H     2.6254017199   -0.1069907889    0.9018260448
     O    -0.1375957901   -2.1207877779    0.0157285113
     H    -0.1343882611   -2.5814696509   -0.8430863107
     H     0.3027325373   -2.7186317735    0.6459321671
     O    -2.1814284483   -0.0844377924   -0.1339088855
     H    -2.8280883541    0.6162100588    0.0631125538
     H    -2.6227937677   -0.9243394345    0.0859859469
     O     0.1537124216    0.0538271103    2.0198880408
     H     0.1110254743    0.9566266914    2.3876649776
     H    -0.3808938079   -0.5095822144    2.6090556142
     O    -0.1035740602   -0.1527458991   -2.0236647773
     H     0.4530615611    0.3290390991   -2.6619671831
     H    -1.0197058812   -0.1166252470   -2.3575703187
19
-5.8147912102450800e+02 frame 24   xyz file generated by TeraChem
    Fe     0.0162635965   -0.0164802575   -0.0041136764
     O     0.1302502645    2.1157388398    0.1037008646
     H     1.0382703948    2.4696880989    0.0974904247
     H    -0.4291947596    2.7860164760   -0.3276782936
     O     2.1813016633    0.1079652812    0.0602397316
     H     2.8226003507   -0.1024989193   -0.6414450688
     H     2.6244074373   -0.1044823429    0.9011650767
     O    -0.1365656609   -2.1205523705    0.0187652291
     H    -0.1331834985   -2.5822658701   -0.8395459125
     H     0.3072448236   -2.7163237218    0.6485327689
     O    -2.1809464877   -0.0878832860   -0.1346899586
     H    -2.8310588449    0.6109772735    0.0573002941
     H    -2.6195825344   -0.9286587556    0.0873034679
     O     0.1528731775    0.0561540888    2.0197503325
     H     0.1094995503    0.9592024335    2.3868203723
     H    -0.3825206329   -0.5069438352    2.6084973376
     O    -0.1022621296   -0.1529118706   -2.0238373052
     H     0.4512279268    0.3344353365   -2.6606894090
     H    -1.0186290111   -0.1211787354   -2.3575610025
19
-5.8147912254147661e+02 frame 25   xyz file generated by TeraChem
    Fe     0.0169006437   -0.0164498047   -0.0045152650
     O     0.1298679293    2.1165923043    0.1044319714
     H     1.0376274737    2.4711620524    0.0970587502
     H    -0.4310438799    2.7875954922   -0.3238791899
     O     2.1808507441    0.1087393981    0.0591548197
     H     2.8214907130   -0.1049255805   -0.6421858993
     H     2.6235882823   -0.1027702078    0.9005343793
     O    -0.1358437161   -2.1212133064    0.0204604809
     H    -0.1323887571   -2.5838378303   -0.8373863261
     H     0.3103906449   -2.7153961555    0.6500258372
     O    -2.1802958235   -0.0903618320   -0.1356995082
     H    -2.8327201543    0.6072819033    0.0528326322
     H    -2.6171081637   -0.9317870635    0.0874233149
     O     0.1524032057    0.0572852538    2.0201314709
     H     0.1082007877    0.9606679490    2.3862434783
     H    -0.3833252375   -0.5055463399    2.6088166361
     O    -0.1009296047   -0.1524137656   -2.0248220476
     H     0.4499009471    0.3393639702   -2.6605798186
     H    -1.0175709356   -0.1239881157   -2.3580404945
19
-5.8147912373342729e+02 frame 26   xyz file generated by TeraChem
    Fe     0.0172219130   -0.0165642927   -0.0048939949
     O     0.1290302639    2.1172457219    0.1055719617
     H     1.0364733709    2.4725883313    0.0973362494
     H    -0.4332329556    2.7886739476   -0.3202714499
     O     2.1809050430    0.1091358958    0.0584469028
     H     2.8211180181   -0.1055517828   -0.6429694648
     H     2.6235222615   -0.1024436610    0.8998740993
     O    -0.1353070940   -2.1222057770    0.0213007091
     H    -0.1321775534   -2.5857953990   -0.8360306952
     H     0.3125859792   -2.7151179368    0.6508739337
     O    -2.1797742417   -0.0916317702   -0.1364559325
     H    -2.8330545035    0.6059190408    0.0493701203
     H    -2.6160951897   -0.9329750468    0.0878969452
     O     0.1525169406    0.0574140066    2.0204300344
     H     0.1080496334    0.9611884760    2.3855150897
     H    -0.3833992309   -0.5048940843    2.6094331340
     O    -0.1000491292   -0.1517943800   -2.0258312223
     H     0.4486638789    0.3427569691   -2.6612554395
     H    -1.0170026464   -0.1259494647   -2.3583355981
19
-5.8147912526377797e+02 frame 27   xyz file generated by TeraChem
    Fe     0.0173874166   -0.0167757434   -0.0052564212
     O     0.1278873672    2.1179643120    0.1068732276
     H     1.0348331887    2.4745274684    0.0972669027
     H    -0.4361783456    2.7894939428   -0.3163986122
     O     2.1808524663    0.1096997306    0.0574305943
     H     2.8206899133   -0.1062409467   -0.6439370080
     H     2.6234522470   -0.1011430291    0.8990465948
     O    -0.1349978586   -2.1234874228    0.0214262442
     H    -0.1321749212   -2.5879805477   -0.8354074886
     H     0.3134400842   -2.7156397713    0.6513030698
     O    -2.1789591739   -0.0925145985   -0.1367546090
     H    -2.8323604451    0.6051112402    0.0483246253
     H    -2.6150870277   -0.9338297168    0.0880847858
     O     0.1530017957    0.0573191367    2.0203848029
     H     0.1080766519    0.9615438116    2.3842968684
     H    -0.3823947402   -0.5046385072    2.6101910424
     O    -0.0991769414   -0.1512577610   -2.0265340729
     H     0.4480603664    0.3450761925   -2.6618322220
     H    -1.0163576129   -0.1272286770   -2.3585030786
19
-5.8147912521824969e+02 frame 28   xyz file generated by TeraChem
    Fe     0.0173115722   -0.0169137241   -0.0055663881
     O     0.1269729260    2.1185031598    0.1073304891
     H     1.0335023346    2.4760738165    0.0961744708
     H    -0.4387050660    2.7900026443   -0.3138222727
     O     2.1807126312    0.1102482587    0.0562040129
     H     2.8201510063   -0.1061352663   -0.6453830765
     H     2.6237387371   -0.0999702034    0.8977446876
     O    -0.1349359388   -2.1244000558    0.0221038782
     H    -0.1327821933   -2.5900763338   -0.8340759648
     H     0.3140220618   -2.7157316860    0.6523609164
     O    -2.1782562642   -0.0932740539   -0.1364319186
     H    -2.8313883209    0.6049480235    0.0473143215
     H    -2.6145796596   -0.9340514829    0.0900346087
     O     0.1537511148    0.0572811997    2.0198762778
     H     0.1091857316    0.9619241658    2.3828094521
     H    -0.3812989773   -0.5040223197    2.6106245160
     O    -0.0986510235   -0.1512235318   -2.0266797245
     H     0.4472076611    0.3463556926   -2.6621864950
     H    -1.0159640102   -0.1295387313   -2.3584265872
19
-5.8147912590141550e+02 frame 29   xyz file generated by TeraChem
    Fe     0.0171766587   -0.0171471709   -0.0060598293
     O     0.1254632730    2.1195629925    0.1074436014
     H     1.0311711392    2.4790735015    0.0930488953
     H    -0.4433069907    2.7908562043   -0.3098412709
     O     2.1798339808    0.1112864968    0.0537465063
     H     2.8185046971   -0.1070842629   -0.6479285973
     H     2.6237211226   -0.0964926615    0.8954390698
     O    -0.1348685179   -2.1257901051    0.0235893848
     H    -0.1335879042   -2.5936348336   -0.8313900531
     H     0.3140492808   -2.7160005074    0.6549050027
     O    -2.1767295917   -0.0946348833   -0.1357019211
     H    -2.8294827258    0.6042765172    0.0467755744
     H    -2.6130337352   -0.9347575928    0.0932576011
     O     0.1548244547    0.0578651663    2.0187374058
     H     0.1108148142    0.9631633815    2.3801430615
     H    -0.3792551440   -0.5025139240    2.6112486617
     O    -0.0973823052   -0.1517640280   -2.0265577404
     H     0.4467050780    0.3476874886   -2.6621179200
     H    -1.0146234281   -0.1339519103   -2.3587320376
19
-5.8147912705546889e+02 frame 30   xyz file generated by TeraChem
    Fe     0.0169252780   -0.0170883490   -0.0061648253
     O     0.1255825697    2.1196896333    0.1062766773
     H     1.0312491006    2.4792546583    0.0909221874
     H    -0.4436808667    2.7909787533   -0.3103454981
     O     2.1794643661    0.1113996201    0.0530551449
     H     2.8177508235   -0.1065191175   -0.6491091809
     H     2.6242131931   -0.0960807242    0.8943632059
     O    -0.1350184854   -2.1256035298    0.0252049304
     H    -0.1343873814   -2.5946631590   -0.8291089142
     H     0.3141848412   -2.7150621610    0.6570252514
     O    -2.1766277386   -0.0950697273   -0.1351891870
     H    -2.8292091050    0.6046062211    0.0449589321
     H    -2.6132189354   -0.9342969592    0.0964799232
     O     0.1550162390    0.0583964474    2.0181641253
     H     0.1123852630    0.9638193888    2.3794356190
     H    -0.3795299911   -0.5011656506    2.6110364407
     O    -0.0971889346   -0.1526773634   -2.0261433795
     H     0.4463185909    0.3471993212   -2.6618745785
     H    -1.0142348101   -0.1371173584   -2.3589815309
19
-5.8147912697017910e+02 frame 31   xyz file generated by TeraChem
    Fe     0.0166944381   -0.0170590934   -0.0064042052
     O     0.1254439768    2.1204115454    0.1047338282
     H     1.0307894034    2.4806402060    0.0869040799
     H    -0.4455116996    2.7916455826   -0.3096496270
     O     2.1783236190    0.1118602790    0.0516389828
     H     2.8157787926   -0.1075427393   -0.6508237250
     H     2.6242311695   -0.0935640625    0.8928435522
     O    -0.1349526597   -2.1257802524    0.0275345064
     H    -0.1346865443   -2.5968921080   -0.8256501154
     H     0.3137614932   -2.7141894325    0.6606890631
     O    -2.1759927553   -0.0961265993   -0.1347913912
     H    -2.8286937441    0.6040117313    0.0431329047
     H    -2.6122613344   -0.9346204933    0.1001237428
     O     0.1549057176    0.0596474531    2.0175127087
     H     0.1136858622    0.9652992055    2.3783874733
     H    -0.3798076839   -0.4990179954    2.6110825111
     O    -0.0960374887   -0.1540231427   -2.0258400515
     H     0.4468740571    0.3470616081   -2.6611402288
     H    -1.0125512883   -0.1417615131   -2.3602787667
19
-5.8147912731832105e+02 frame 32   xyz file generated by TeraChem
    Fe     0.0166287028   -0.0170173625   -0.0064498029
     O     0.1258062863    2.1206685732    0.1039505067
     H     1.0311685400    2.4807870640    0.0854439339
     H    -0.4454212640    2.7920171204   -0.3098567526
     O     2.1779588589    0.1118019203    0.0516007236
     H     2.8150735845   -0.1079114380   -0.6510806096
     H     2.6243115091   -0.0931992024    0.8926794542
     O    -0.1348376442   -2.1257028688    0.0284761574
     H    -0.1344368680   -2.5976117706   -0.8242648226
     H     0.3133305469   -2.7137254619    0.6623729460
     O    -2.1761001304   -0.0963377795   -0.1350295314
     H    -2.8290038566    0.6038985126    0.0417806989
     H    -2.6121745977   -0.9345793462    0.1011414783
     O     0.1544407812    0.0602542642    2.0176009884
     H     0.1139333975    0.9658956652    2.3785591746
     H    -0.3807655932   -0.4980292974    2.6110751847
     O    -0.0955925039   -0.1546581673   -2.0259175439
     H     0.4474732751    0.3466924535   -2.6608723086
     H    -1.0117998432   -0.1432428710   -2.3612046508
