19
-5.8149694569122198e+02 frame 0   xyz file generated by TeraChem
    Fe    -0.0003874712   -0.0004188110    0.0001604089
     O     0.0691101246    2.0214646245    0.1248654872
     H     0.9610952872    2.3876325217   -0.0246179840
     H    -0.5551199323    2.6219459268   -0.3211500227
     O     2.0209590435    0.1257234170    0.0650573267
     H     2.6179987637   -0.3364315490   -0.5506693994
     H     2.3861230386   -0.0106123088    0.9595825270
     O    -0.1270570680   -2.0216835823   -0.0674192545
     H     0.0263719112   -2.3898342025   -0.9578888160
     H     0.3151937316   -2.6211153596    0.5604457934
     O    -2.0217802412   -0.0674584506   -0.1278880883
     H    -2.6236122287    0.5525630662    0.3220633426
     H    -2.3876956661   -0.9610390452    0.0123555955
     O     0.1261862414    0.0693684444    2.0210611923
     H    -0.0109975724    0.9645769229    2.3842636855
     H    -0.3283626858   -0.5465996110    2.6236469501
     O    -0.0619056925   -0.1290981767   -2.0208470261
     H     0.5509170110    0.3386455713   -2.6165562626
     H    -0.9570366559    0.0023705763   -2.3864653788
19
-5.8151493419189399e+02 frame 1   xyz file generated by TeraChem
    Fe     0.0005809862    0.0004269116    0.0013154831
     O     0.0571567313    2.1158361218    0.1206337840
     H     0.9449472694    2.4984323495   -0.0127818208
     H    -0.5619162836    2.7322761967   -0.3124717093
     O     2.1144089857    0.1192396789    0.0540351519
     H     2.7276758640   -0.3293922656   -0.5571356022
     H     2.4957825148   -0.0018268877    0.9442040003
     O    -0.1213695044   -2.1130625137   -0.0585203460
     H     0.0158334737   -2.4959086848   -0.9456680987
     H     0.3073800612   -2.7302719894    0.5628087732
     O    -2.1128478492   -0.0572608670   -0.1223913609
     H    -2.7320584581    0.5566811937    0.3140769167
     H    -2.4934921846   -0.9472346793    0.0020299222
     O     0.1199763492    0.0599039811    2.1148845383
     H    -0.0016019851    0.9510688630    2.4936889316
     H    -0.3215189940   -0.5507242046    2.7337728875
     O    -0.0517269932   -0.1254025486   -2.1125515580
     H     0.5555999507    0.3277322711   -2.7262823364
     H    -0.9428100169   -0.0105129250   -2.4936475616
19
-5.8151699854863409e+02 frame 2   xyz file generated by TeraChem
    Fe    -0.0007491485   -0.0022424122    0.0002218222
     O     0.0662932756    2.1458816103    0.1488026236
     H     0.9553890602    2.5325628557    0.0439183276
     H    -0.5462488162    2.7811066741   -0.2643907130
     O     2.1413966369    0.1350322859    0.0683291851
     H     2.7739857860   -0.2925205283   -0.5373299625
     H     2.5242153867    0.0384958810    0.9603323052
     O    -0.1349386985   -2.1456228944   -0.0784346803
     H    -0.0231228710   -2.5294624991   -0.9680943708
     H     0.2745496807   -2.7814966925    0.5360234828
     O    -2.1447622507   -0.0690669579   -0.1386797111
     H    -2.7807917518    0.5395755055    0.2794579059
     H    -2.5279127926   -0.9604983844   -0.0388449839
     O     0.1392942961    0.0813611713    2.1432536845
     H     0.0443965137    0.9751431601    2.5218735416
     H    -0.2810765292   -0.5212891601    2.7831610844
     O    -0.0633529730   -0.1493953921   -2.1475415968
     H     0.5383390986    0.2850552675   -2.7789531256
     H    -0.9549039430   -0.0626195059   -2.5331049004
19
-5.8151747496557516e+02 frame 3   xyz file generated by TeraChem
    Fe     0.0016920444   -0.0024465408    0.0020427539
     O     0.0395196582    2.1631947248    0.1388448351
     H     0.9244657815    2.5623594050    0.0506922667
     H    -0.5780194470    2.7961427247   -0.2700370487
     O     2.1528286677    0.1121638346    0.0633019729
     H     2.7883606931   -0.3053266320   -0.5460680934
     H     2.5410638952    0.0275616816    0.9538529797
     O    -0.1129594839   -2.1545075761   -0.0700443259
     H    -0.0140335792   -2.5439103191   -0.9584520530
     H     0.2849798082   -2.7940687242    0.5478759596
     O    -2.1547994191   -0.0497256293   -0.1324090909
     H    -2.7931240999    0.5626010454    0.2762055850
     H    -2.5467430676   -0.9385403337   -0.0491357610
     O     0.1312729006    0.0691869007    2.1588522569
     H     0.0541776518    0.9599987331    2.5468959230
     H    -0.2790479389   -0.5374835297    2.8009911325
     O    -0.0514075172   -0.1406148842   -2.1615836258
     H     0.5517663790    0.2875910795   -2.7952555197
     H    -0.9399928343   -0.0741761085   -2.5565701833
19
-5.8151771266188086e+02 frame 4   xyz file generated by TeraChem
    Fe     0.0032844155   -0.0043717326    0.0028358391
     O     0.0314457009    2.1669480772    0.1386850500
     H     0.9140253728    2.5745605253    0.0703123321
     H    -0.5865217643    2.8019987581   -0.2655148486
     O     2.1520269325    0.1107831271    0.0677892586
     H     2.7957548005   -0.2890801088   -0.5442197393
     H     2.5445801936    0.0407584418    0.9572385602
     O    -0.1080914470   -2.1549590816   -0.0719197801
     H    -0.0231620546   -2.5484707960   -0.9595387738
     H     0.2724808511   -2.8022305264    0.5484300035
     O    -2.1560779992   -0.0474497663   -0.1339488185
     H    -2.7993586149    0.5648450683    0.2660982217
     H    -2.5539746759   -0.9348190216   -0.0692007901
     O     0.1289144675    0.0627397163    2.1634210687
     H     0.0700360239    0.9508025350    2.5599207410
     H    -0.2710583849   -0.5465597720    2.8091259478
     O    -0.0444583191   -0.1377640102   -2.1664868923
     H     0.5599914502    0.2846898125   -2.8023738928
     H    -0.9298369512   -0.0924214179   -2.5706533725
19
-5.8151796436453310e+02 frame 5   xyz file generated by TeraChem
    Fe     0.0063392755   -0.0079219206    0.0040529749
     O     0.0178263103    2.1641238877    0.1384651439
     H     0.8941003908    2.5881483010    0.1029073613
     H    -0.6027206136    2.7996818070   -0.2601969634
     O     2.1445887534    0.1082256928    0.0724640803
     H     2.7997616210   -0.2610037572   -0.5461552401
     H     2.5467392637    0.0593592000    0.9585135777
     O    -0.1008746826   -2.1496344519   -0.0771622818
     H    -0.0360743642   -2.5503120351   -0.9627869720
     H     0.2495873172   -2.8091740379    0.5475602269
     O    -2.1508464702   -0.0420533870   -0.1322658433
     H    -2.7984057790    0.5721755525    0.2570979674
     H    -2.5612158731   -0.9249193088   -0.0970347311
     O     0.1232978502    0.0531096348    2.1642233804
     H     0.0927526704    0.9353961346    2.5755246149
     H    -0.2620110002   -0.5609063809    2.8139394993
     O    -0.0309864081   -0.1334495357   -2.1668639597
     H     0.5770406437    0.2810745744   -2.8041020523
     H    -0.9088986696   -0.1219206583   -2.5881800943
19
-5.8151802909949390e+02 frame 6   xyz file generated by TeraChem
    Fe     0.0078090968   -0.0097899468    0.0045567582
     O     0.0094743107    2.1582700710    0.1372192728
     H     0.8807657066    2.5931543194    0.1170746691
     H    -0.6139970110    2.7906893265   -0.2618111272
     O     2.1399365620    0.1078824434    0.0751238278
     H     2.7992842708   -0.2454979448   -0.5483814677
     H     2.5479878474    0.0657943705    0.9587904429
     O    -0.0978345757   -2.1460658209   -0.0805677780
     H    -0.0384446700   -2.5508979597   -0.9646238117
     H     0.2369833347   -2.8103646057    0.5477435429
     O    -2.1453146736   -0.0383630308   -0.1303308108
     H    -2.7917295903    0.5786877513    0.2564378866
     H    -2.5642184260   -0.9175149414   -0.1080617176
     O     0.1213516939    0.0494998195    2.1617298740
     H     0.1020961079    0.9283775917    2.5807432356
     H    -0.2580257795   -0.5676407661    2.8119835176
     O    -0.0243843342   -0.1318651151   -2.1635484544
     H     0.5859063785    0.2809776611   -2.7996868536
     H    -0.8976460149   -0.1353338468   -2.5943902996
19
-5.8151806091407093e+02 frame 7   xyz file generated by TeraChem
    Fe     0.0085513480   -0.0107869798    0.0047708493
     O     0.0024906033    2.1535286055    0.1351761436
     H     0.8695285339    2.5971128405    0.1230014483
     H    -0.6239756387    2.7808866169   -0.2672039294
     O     2.1389859730    0.1080498191    0.0763741164
     H     2.7991542969   -0.2359932664   -0.5515529659
     H     2.5512499807    0.0658685040    0.9580927298
     O    -0.0962458636   -2.1455047382   -0.0825434822
     H    -0.0351159477   -2.5532640540   -0.9651361268
     H     0.2291545836   -2.8110281073    0.5494758369
     O    -2.1420175457   -0.0347368297   -0.1282096705
     H    -2.7848172571    0.5854151114    0.2596645496
     H    -2.5678921903   -0.9106431820   -0.1116344988
     O     0.1211738590    0.0486031929    2.1599936342
     H     0.1054704745    0.9254142322    2.5834357266
     H    -0.2559486881   -0.5709207687    2.8093496505
     O    -0.0204658432   -0.1318444301   -2.1607490448
     H     0.5914276036    0.2820585281   -2.7947176660
     H    -0.8907079878   -0.1422159264   -2.5975864901
19
-5.8151809859603543e+02 frame 8   xyz file generated by TeraChem
    Fe     0.0096498199   -0.0122373808    0.0049999918
     O    -0.0108437989    2.1476817015    0.1322429844
     H     0.8486323309    2.6059427985    0.1316041156
     H    -0.6421945768    2.7646469347   -0.2785353239
     O     2.1399480710    0.1080816297    0.0801539974
     H     2.8003470541   -0.2216574231   -0.5551996309
     H     2.5577144465    0.0606038552    0.9589928189
     O    -0.0932135268   -2.1468428367   -0.0863130553
     H    -0.0232152784   -2.5586004523   -0.9663561752
     H     0.2173895972   -2.8128350373    0.5526408666
     O    -2.1388789144   -0.0278223056   -0.1265998778
     H    -2.7741133092    0.5975539978    0.2653281331
     H    -2.5762505081   -0.8981406206   -0.1173394088
     O     0.1219150902    0.0474338729    2.1588346039
     H     0.1082683838    0.9211560921    2.5886013817
     H    -0.2528119173   -0.5761586329    2.8056904238
     O    -0.0136912243   -0.1325122090   -2.1579061039
     H     0.6005592950    0.2852639332   -2.7870622314
     H    -0.8792109502   -0.1515586055   -2.6037767806
19
-5.8151813651682767e+02 frame 9   xyz file generated by TeraChem
    Fe     0.0109364533   -0.0136777031    0.0052310280
     O    -0.0264398893    2.1438838075    0.1284095045
     H     0.8244486022    2.6178738742    0.1395163522
     H    -0.6620999392    2.7478570965   -0.2948281380
     O     2.1425862255    0.1080930784    0.0843422808
     H     2.8023958856   -0.2060488528   -0.5594000088
     H     2.5649953301    0.0500530764    0.9602521354
     O    -0.0901015646   -2.1496222657   -0.0897015604
     H    -0.0048394764   -2.5649429789   -0.9666532323
     H     0.2038739915   -2.8149600165    0.5576773755
     O    -2.1377310653   -0.0195701943   -0.1253595900
     H    -2.7635285051    0.6107668816    0.2736504679
     H    -2.5870894454   -0.8838084386   -0.1226982639
     O     0.1227160833    0.0450483384    2.1596780378
     H     0.1079186117    0.9156683455    2.5955602227
     H    -0.2508302135   -0.5832106729    2.8026778827
     O    -0.0044346939   -0.1336203772   -2.1568850243
     H     0.6121831004    0.2903924362   -2.7795174840
     H    -0.8649599186   -0.1601761181   -2.6119516424
19
-5.8151817736317253e+02 frame 10   xyz file generated by TeraChem
    Fe     0.0127603292   -0.0154887085    0.0055209877
     O    -0.0471061637    2.1420504348    0.1230061829
     H     0.7927277340    2.6348528392    0.1498976842
     H    -0.6856430083    2.7288344029   -0.3195420666
     O     2.1456934123    0.1077644607    0.0910984401
     H     2.8053386329   -0.1850227107   -0.5626301397
     H     2.5715840532    0.0318778629    0.9638656431
     O    -0.0868306129   -2.1529740942   -0.0933203250
     H     0.0232150299   -2.5716306391   -0.9658397678
     H     0.1835431615   -2.8173487516    0.5650944873
     O    -2.1381506926   -0.0082099772   -0.1254999245
     H    -2.7519199915    0.6265354259    0.2848559545
     H    -2.6013001002   -0.8651071493   -0.1316386886
     O     0.1244444718    0.0402523492    2.1628975458
     H     0.1062920318    0.9072105450    2.6057521980
     H    -0.2483271134   -0.5937544933    2.8005835436
     O     0.0096872532   -0.1358556812   -2.1580733279
     H     0.6285182311    0.2976507733   -2.7718077390
     H    -0.8445271614   -0.1716374503   -2.6242208622
19
-5.8151820724195045e+02 frame 11   xyz file generated by TeraChem
    Fe     0.0140584416   -0.0166653573    0.0057517985
     O    -0.0600998763    2.1430374869    0.1180349827
     H     0.7728995118    2.6465253403    0.1574531598
     H    -0.6968805865    2.7183650392   -0.3416683305
     O     2.1462326814    0.1073367575    0.0965402490
     H     2.8069846680   -0.1683571492   -0.5633501080
     H     2.5719679730    0.0148600648    0.9677503742
     O    -0.0874920424   -2.1539435424   -0.0948485288
     H     0.0446972214   -2.5737582454   -0.9637105926
     H     0.1627227355   -2.8182681230    0.5714380469
     O    -2.1393237795    0.0006973947   -0.1263666739
     H    -2.7452198029    0.6359533687    0.2946300071
     H    -2.6100885393   -0.8519559179   -0.1397399832
     O     0.1260394581    0.0347999324    2.1666576661
     H     0.1045987917    0.8995951990    2.6135176814
     H    -0.2472212656   -0.6026058279    2.8005734187
     O     0.0221708205   -0.1381778569   -2.1606487030
     H     0.6416886080    0.3031453120   -2.7679926221
     H    -0.8277360380   -0.1805847082   -2.6340224434
19
-5.8151823692561356e+02 frame 12   xyz file generated by TeraChem
    Fe     0.0147576374   -0.0173432899    0.0058439352
     O    -0.0676662980    2.1454888007    0.1140882586
     H     0.7617671132    2.6536359733    0.1662575352
     H    -0.6981177331    2.7138945952   -0.3625747982
     O     2.1440055667    0.1060934507    0.1018411396
     H     2.8078020486   -0.1533451622   -0.5615253191
     H     2.5662829703   -0.0038506988    0.9727374883
     O    -0.0926121179   -2.1524282556   -0.0962632230
     H     0.0617108747   -2.5714948474   -0.9618698800
     H     0.1369459451   -2.8184149199    0.5757543378
     O    -2.1402245472    0.0095349313   -0.1279215086
     H    -2.7411242721    0.6418487860    0.3044629670
     H    -2.6144384121   -0.8410335370   -0.1494790707
     O     0.1281199706    0.0285696320    2.1704361054
     H     0.1044037080    0.8923277940    2.6192203738
     H    -0.2465895442   -0.6101453119    2.8021112542
     O     0.0342887566   -0.1409507677   -2.1639226249
     H     0.6531261077    0.3072557561   -2.7668292948
     H    -0.8124391082   -0.1896437054   -2.6423687202
19
-5.8151825822635658e+02 frame 13   xyz file generated by TeraChem
    Fe     0.0145044433   -0.0173501674    0.0056219584
     O    -0.0710074104    2.1473168447    0.1131299035
     H     0.7577922315    2.6550117050    0.1773857906
     H    -0.6929575035    2.7142846811   -0.3762222986
     O     2.1399378950    0.1038882443    0.1070478474
     H     2.8084620896   -0.1422111791   -0.5567017340
     H     2.5567537276   -0.0201596840    0.9787588756
     O    -0.0993401391   -2.1491529402   -0.0989785207
     H     0.0720278956   -2.5660592156   -0.9625053078
     H     0.1124747448   -2.8185540159    0.5755472955
     O    -2.1395874518    0.0173604545   -0.1301481392
     H    -2.7390044144    0.6447031547    0.3114936750
     H    -2.6139650426   -0.8328301453   -0.1608263724
     O     0.1307603337    0.0235506671    2.1724068742
     H     0.1075622348    0.8872439607    2.6214404772
     H    -0.2451265781   -0.6144429085    2.8041087451
     O     0.0428147434   -0.1433713289   -2.1662819291
     H     0.6598064367    0.3093827097   -2.7676691233
     H    -0.8019097715   -0.1986117222   -2.6476094920
19
-5.8151827163407313e+02 frame 14   xyz file generated by TeraChem
    Fe     0.0132793932   -0.0165507375    0.0051277278
     O    -0.0704358208    2.1475595606    0.1146410839
     H     0.7601744407    2.6512370469    0.1864610165
     H    -0.6853586955    2.7177233968   -0.3798954944
     O     2.1365631381    0.1024418069    0.1100331702
     H     2.8092878802   -0.1369693234   -0.5520044408
     H     2.5485430709   -0.0281734070    0.9831460930
     O    -0.1043925194   -2.1462626749   -0.1017445217
     H     0.0743429466   -2.5607989120   -0.9649971174
     H     0.0981724446   -2.8190178557    0.5723947394
     O    -2.1378856835    0.0213105579   -0.1315532394
     H    -2.7388629648    0.6438708414    0.3148242994
     H    -2.6101668822   -0.8297824190   -0.1692958695
     O     0.1320600714    0.0208105544    2.1719901491
     H     0.1112231511    0.8849723044    2.6203450457
     H    -0.2445939312   -0.6154935383    2.8050097982
     O     0.0457180264   -0.1437486793   -2.1667788326
     H     0.6607111250    0.3107017849   -2.7690020951
     H    -0.7983809451   -0.2038313475   -2.6487029669
19
-5.8151828044513491e+02 frame 15   xyz file generated by TeraChem
    Fe     0.0115092066   -0.0152325845    0.0044316969
     O    -0.0697072575    2.1465578930    0.1165888562
     H     0.7628790318    2.6462879808    0.1932370471
     H    -0.6797509605    2.7206132534   -0.3795738695
     O     2.1349083972    0.1017035622    0.1115146870
     H     2.8105931447   -0.1346211542   -0.5486637500
     H     2.5436186066   -0.0313679901    0.9858087734
     O    -0.1066783118   -2.1448282098   -0.1040093015
     H     0.0746769912   -2.5577232488   -0.9675364715
     H     0.0915927454   -2.8198777503    0.5691737097
     O    -2.1362501291    0.0233066956   -0.1320004678
     H    -2.7391378292    0.6423325955    0.3168163824
     H    -2.6067954401   -0.8285119771   -0.1753135476
     O     0.1322527611    0.0199288638    2.1703670740
     H     0.1142440780    0.8843877166    2.6183423279
     H    -0.2450165310   -0.6149185493    2.8045610842
     O     0.0457738380   -0.1430302418   -2.1660734288
     H     0.6591908976    0.3121950349   -2.7694002294
     H    -0.7979049608   -0.2072027993   -2.6482721514
19
-5.8151828651406606e+02 frame 16   xyz file generated by TeraChem
    Fe     0.0097480630   -0.0138983862    0.0036812185
     O    -0.0714037654    2.1452310042    0.1172919420
     H     0.7612954991    2.6439156263    0.1997785127
     H    -0.6775268536    2.7205546680   -0.3822850501
     O     2.1345474158    0.1014545761    0.1135922950
     H     2.8123206711   -0.1302420414   -0.5460725591
     H     2.5413988268   -0.0350622700    0.9881924398
     O    -0.1071988622   -2.1447103987   -0.1060882513
     H     0.0786825101   -2.5572429244   -0.9688012604
     H     0.0852729637   -2.8208925895    0.5676275713
     O    -2.1355451224    0.0258626751   -0.1323541408
     H    -2.7384352042    0.6424925392    0.3198009969
     H    -2.6067929301   -0.8252485361   -0.1819809861
     O     0.1312701372    0.0182847740    2.1691065283
     H     0.1155984936    0.8820594012    2.6184975823
     H    -0.2469269898   -0.6165253064    2.8028128260
     O     0.0476518064   -0.1414511598   -2.1652704458
     H     0.6603492848    0.3159553607   -2.7677113456
     H    -0.7943074826   -0.2105377644   -2.6498194398
19
-5.8151829239005860e+02 frame 17   xyz file generated by TeraChem
    Fe     0.0076707403   -0.0122669284    0.0028058971
     O    -0.0729941687    2.1444108513    0.1172446954
     H     0.7593227035    2.6427422378    0.2058887861
     H    -0.6752964952    2.7200922295   -0.3866184825
     O     2.1347292341    0.1011849318    0.1151440598
     H     2.8137067692   -0.1259086921   -0.5448235270
     H     2.5405996492   -0.0393616011    0.9894989343
     O    -0.1069831640   -2.1452001741   -0.1077124369
     H     0.0841902873   -2.5582872789   -0.9689324439
     H     0.0795568177   -2.8215167454    0.5674648096
     O    -2.1362116246    0.0285311841   -0.1320657803
     H    -2.7380119176    0.6431320292    0.3243038457
     H    -2.6093646500   -0.8210946375   -0.1886951276
     O     0.1290640022    0.0155163891    2.1682416015
     H     0.1158052013    0.8778307135    2.6204876730
     H    -0.2509421884   -0.6201669162    2.7999826491
     O     0.0506097705   -0.1386024686   -2.1646120267
     H     0.6632672202    0.3219866393   -2.7646764020
     H    -0.7887191024   -0.2130224016   -2.6529281830
19
-5.8151829641832160e+02 frame 18   xyz file generated by TeraChem
    Fe     0.0054744396   -0.0105889594    0.0018525393
     O    -0.0748625389    2.1445580554    0.1171129276
     H     0.7562750578    2.6434805660    0.2131379095
     H    -0.6732781928    2.7196467000   -0.3920838671
     O     2.1345924393    0.1000265345    0.1170874889
     H     2.8142399071   -0.1219968695   -0.5438365074
     H     2.5399614131   -0.0457624895    0.9907460815
     O    -0.1061536708   -2.1455857475   -0.1095738679
     H     0.0915748672   -2.5599582240   -0.9686064244
     H     0.0735033499   -2.8214134876    0.5678619219
     O    -2.1381930626    0.0320852583   -0.1319426777
     H    -2.7378133785    0.6449566168    0.3295667891
     H    -2.6146479118   -0.8150543221   -0.1970042091
     O     0.1265398935    0.0111536952    2.1680144646
     H     0.1163305727    0.8711270280    2.6247327443
     H    -0.2559250743   -0.6262489157    2.7964849094
     O     0.0549354781   -0.1348365589   -2.1645242466
     H     0.6680965428    0.3299341885   -2.7608092432
     H    -0.7806505218   -0.2155233788   -2.6582178435
19
-5.8151830208074318e+02 frame 19   xyz file generated by TeraChem
    Fe     0.0032236000   -0.0089360815    0.0009153587
     O    -0.0747881280    2.1458804075    0.1176500883
     H     0.7555623477    2.6447472806    0.2202027755
     H    -0.6696512830    2.7209628518   -0.3957074932
     O     2.1336335121    0.0980124769    0.1183762375
     H     2.8130923740   -0.1211245549   -0.5436419826
     H     2.5388221440   -0.0525410620    0.9912557099
     O    -0.1053153443   -2.1452730201   -0.1113999371
     H     0.0975895890   -2.5612255855   -0.9683884686
     H     0.0694617319   -2.8200705615    0.5682575624
     O    -2.1410948308    0.0353532571   -0.1316992408
     H    -2.7384588049    0.6467279631    0.3346386561
     H    -2.6209966707   -0.8091017077   -0.2050548336
     O     0.1237766391    0.0055243924    2.1681746383
     H     0.1173023740    0.8626627759    2.6302322309
     H    -0.2619815469   -0.6338567681    2.7925595128
     O     0.0591184636   -0.1301022857   -2.1649847633
     H     0.6731698878    0.3389091051   -2.7569811362
     H    -0.7724662378   -0.2165486235   -2.6644059173
19
-5.8151830552031890e+02 frame 20   xyz file generated by TeraChem
    Fe     0.0010851211   -0.0075214087    0.0000348595
     O    -0.0739430234    2.1477214325    0.1195131663
     H     0.7556215104    2.6463314481    0.2288711994
     H    -0.6652763946    2.7232832658   -0.3973444044
     O     2.1315027821    0.0949989100    0.1202561921
     H     2.8105592436   -0.1222546169   -0.5427649234
     H     2.5362019664   -0.0608580473    0.9924046079
     O    -0.1048687382   -2.1438813960   -0.1142632442
     H     0.1029701304   -2.5611893753   -0.9693727207
     H     0.0655614998   -2.8177785177    0.5673486635
     O    -2.1438375080    0.0393521023   -0.1321492720
     H    -2.7388839668    0.6492530161    0.3390003426
     H    -2.6274991271   -0.8020687785   -0.2143424088
     O     0.1210259945   -0.0017008916    2.1685388996
     H     0.1190178604    0.8521681514    2.6366530036
     H    -0.2687866801   -0.6430904944    2.7882843474
     O     0.0639089051   -0.1247321363   -2.1659255317
     H     0.6789415766    0.3488503271   -2.7532041133
     H    -0.7633009876   -0.2168823501   -2.6715395806
19
-5.8151830831991379e+02 frame 21   xyz file generated by TeraChem
    Fe    -0.0001222782   -0.0068676933   -0.0004103301
     O    -0.0719108553    2.1489727090    0.1216678080
     H     0.7577296548    2.6466861882    0.2341256378
     H    -0.6616119809    2.7258530314   -0.3955588396
     O     2.1294355733    0.0926608259    0.1213436796
     H     2.8077900024   -0.1258042551   -0.5420135822
     H     2.5336483837   -0.0658967595    0.9932420892
     O    -0.1051946509   -2.1421981302   -0.1164837389
     H     0.1039881927   -2.5600383374   -0.9710208991
     H     0.0647090595   -2.8155865372    0.5657771392
     O    -2.1449988846    0.0420028181   -0.1326790543
     H    -2.7389229276    0.6512672459    0.3406891257
     H    -2.6308667120   -0.7976188568   -0.2197985702
     O     0.1192207095   -0.0072973958    2.1687511634
     H     0.1206258806    0.8443562471    2.6409126266
     H    -0.2740361116   -0.6496785733    2.7852845138
     O     0.0665162791   -0.1207870428   -2.1667519865
     H     0.6821662471    0.3556090519   -2.7510940000
     H    -0.7581650559   -0.2156337293   -2.6759835599
19
-5.8151831041497280e+02 frame 22   xyz file generated by TeraChem
    Fe    -0.0005387082   -0.0068420566   -0.0004861194
     O    -0.0696614981    2.1494368766    0.1233330724
     H     0.7606156355    2.6460745365    0.2356668322
     H    -0.6595060459    2.7279349392   -0.3918937656
     O     2.1280603138    0.0914179277    0.1215356925
     H     2.8054924710   -0.1306605460   -0.5416057016
     H     2.5319082415   -0.0674852041    0.9935703733
     O    -0.1059663644   -2.1408889185   -0.1175945072
     H     0.1017253053   -2.5586526269   -0.9725705660
     H     0.0664553349   -2.8140445409    0.5643041421
     O    -2.1447575057    0.0435167855   -0.1329460310
     H    -2.7383994718    0.6530977370    0.3403905940
     H    -2.6316008812   -0.7954171184   -0.2212944023
     O     0.1182668047   -0.0104474953    2.1687942602
     H     0.1219082313    0.8401482734    2.6428847157
     H    -0.2777533231   -0.6528107981    2.7835969640
     O     0.0672460984   -0.1189689831   -2.1673635977
     H     0.6830885054    0.3587731561   -2.7504155716
     H    -0.7565826688   -0.2141810787   -2.6779067322
19
-5.8151831268061369e+02 frame 23   xyz file generated by TeraChem
    Fe    -0.0015161342   -0.0067044150   -0.0007683778
     O    -0.0681381933    2.1494682098    0.1255117724
     H     0.7621386017    2.6454372962    0.2405974811
     H    -0.6570335513    2.7297134766   -0.3888146414
     O     2.1261978186    0.0897751785    0.1232437270
     H     2.8028749056   -0.1353134176   -0.5397034473
     H     2.5288986253   -0.0722501364    0.9952663679
     O    -0.1077316229   -2.1392730827   -0.1202775184
     H     0.1007005021   -2.5568774931   -0.9751906123
     H     0.0649876117   -2.8125230348    0.5615033698
     O    -2.1440418737    0.0481832869   -0.1336022509
     H    -2.7361764878    0.6578827667    0.3414958035
     H    -2.6339123599   -0.7885156942   -0.2264558630
     O     0.1162452062   -0.0169261744    2.1688945229
     H     0.1242050897    0.8313990583    2.6470322732
     H    -0.2850784043   -0.6593882924    2.7801654028
     O     0.0708888511   -0.1159675663   -2.1682814793
     H     0.6867727811    0.3657516649   -2.7480199599
     H    -0.7502807366   -0.2138703428   -2.6825966091
19
-5.8151831478719964e+02 frame 24   xyz file generated by TeraChem
    Fe    -0.0019282331   -0.0068467684   -0.0008138199
     O    -0.0669810087    2.1489654879    0.1259261051
     H     0.7636353261    2.6444097059    0.2408339376
     H    -0.6565402021    2.7305677029   -0.3861029678
     O     2.1260084086    0.0899107772    0.1230945028
     H     2.8017126329   -0.1391012218   -0.5395287100
     H     2.5283584675   -0.0725259052    0.9952222248
     O    -0.1089735429   -2.1391420099   -0.1208752434
     H     0.0976135906   -2.5565372994   -0.9763532394
     H     0.0662280246   -2.8123691832    0.5603201256
     O    -2.1432645534    0.0508700757   -0.1329827638
     H    -2.7344653344    0.6615040324    0.3421052885
     H    -2.6350544272   -0.7845907282   -0.2270955889
     O     0.1151650885   -0.0206133592    2.1688175736
     H     0.1261136538    0.8265347135    2.6489950541
     H    -0.2899238432   -0.6626367011    2.7780751151
     O     0.0722672923   -0.1146041752   -2.1685965630
     H     0.6878464198    0.3696413437   -2.7465753531
     H    -0.7478168311   -0.2134350376   -2.6844654315
19
-5.8151831768654904e+02 frame 25   xyz file generated by TeraChem
    Fe    -0.0028862027   -0.0070642897   -0.0010942279
     O    -0.0677579848    2.1478142869    0.1257950424
     H     0.7619706906    2.6440331229    0.2436922526
     H    -0.6576189797    2.7303064125   -0.3848556532
     O     2.1261634963    0.0905287760    0.1235068441
     H     2.8005839903   -0.1420949213   -0.5391878610
     H     2.5277971858   -0.0754431982    0.9953081916
     O    -0.1108360969   -2.1397223810   -0.1226002666
     H     0.0957448842   -2.5569719181   -0.9781395552
     H     0.0647017519   -2.8131617023    0.5583027477
     O    -2.1425961882    0.0580258324   -0.1313566890
     H    -2.7304207088    0.6701662455    0.3459778756
     H    -2.6399267580   -0.7735650057   -0.2307115504
     O     0.1135212987   -0.0288028318    2.1687346992
     H     0.1309630422    0.8154445637    2.6538193502
     H    -0.2989081217   -0.6703428581    2.7735506233
     O     0.0771696180   -0.1122920584   -2.1689627340
     H     0.6917739535    0.3786663936   -2.7423102834
     H    -0.7394373004   -0.2155226095   -2.6894681285
19
-5.8151831856875674e+02 frame 26   xyz file generated by TeraChem
    Fe    -0.0029769044   -0.0072834430   -0.0011621795
     O    -0.0685432095    2.1474118040    0.1248121080
     H     0.7607619673    2.6442524084    0.2430642883
     H    -0.6591488072    2.7297782164   -0.3851061423
     O     2.1270168293    0.0919706694    0.1222372709
     H     2.8008108552   -0.1416029850   -0.5407495921
     H     2.5290298255   -0.0743597927    0.9937829037
     O    -0.1107668152   -2.1407939366   -0.1222848903
     H     0.0947859080   -2.5580826785   -0.9780200620
     H     0.0653265867   -2.8142402393    0.5584397837
     O    -2.1431518027    0.0596586866   -0.1295117961
     H    -2.7295867935    0.6726230458    0.3484392670
     H    -2.6424674390   -0.7705889006   -0.2301054474
     O     0.1137755676   -0.0310116316    2.1684649836
     H     0.1335843917    0.8124961131    2.6547414360
     H    -0.3006021314   -0.6722320545    2.7722782827
     O     0.0780648846   -0.1121465428   -2.1685873791
     H     0.6918849309    0.3811321828   -2.7407830835
     H    -0.7377959843   -0.2169788617   -2.6899487243
19
-5.8151831966722375e+02 frame 27   xyz file generated by TeraChem
    Fe    -0.0032882028   -0.0073786854   -0.0014052958
     O    -0.0698777919    2.1472951233    0.1242563214
     H     0.7584825605    2.6451094004    0.2448871644
     H    -0.6602790546    2.7292223869   -0.3863768912
     O     2.1273283106    0.0929375821    0.1214990964
     H     2.8007186323   -0.1399192219   -0.5421358039
     H     2.5295530066   -0.0755067731    0.9925224551
     O    -0.1104029948   -2.1414780609   -0.1227951836
     H     0.0958590477   -2.5589379693   -0.9782404074
     H     0.0642365017   -2.8150283629    0.5581689061
     O    -2.1443935208    0.0623245963   -0.1277873629
     H    -2.7287426957    0.6755603735    0.3523059178
     H    -2.6466429641   -0.7656893643   -0.2318686544
     O     0.1141336049   -0.0347618584    2.1680073625
     H     0.1373184625    0.8074092357    2.6564517397
     H    -0.3026612240   -0.6758654298    2.7702668037
     O     0.0800753451   -0.1113734578   -2.1680799664
     H     0.6928333462    0.3853309876   -2.7384388598
     H    -0.7342483650   -0.2192479401   -2.6912358196
19
-5.8151832004165658e+02 frame 28   xyz file generated by TeraChem
    Fe    -0.0029461875   -0.0076106113   -0.0013724412
     O    -0.0704322231    2.1473742081    0.1238463930
     H     0.7576595546    2.6456625956    0.2443228962
     H    -0.6611073033    2.7287617432   -0.3870746641
     O     2.1275601273    0.0935769847    0.1206898704
     H     2.8009013791   -0.1385071738   -0.5432685149
     H     2.5302231975   -0.0747601061    0.9915304776
     O    -0.1096487182   -2.1417226581   -0.1223116855
     H     0.0963248039   -2.5592391634   -0.9777940571
     H     0.0647986999   -2.8153064940    0.5586612258
     O    -2.1449896850    0.0618381327   -0.1271106896
     H    -2.7290167397    0.6751391919    0.3532653195
     H    -2.6474340786   -0.7660510339   -0.2310800443
     O     0.1150965009   -0.0342385520    2.1676226205
     H     0.1385425503    0.8082238675    2.6555538135
     H    -0.3011874093   -0.6750836224    2.7705197069
     O     0.0794660690   -0.1122647057   -2.1675727272
     H     0.6915825564    0.3845208933   -2.7385568013
     H    -0.7353912422   -0.2203108264   -2.6898690360
